35
Cl K
 K    0.000000    0.000000    0.000000
 K    0.000000    0.000000    3.634000
 K    0.000000    3.634000    0.000000
 K    0.000000    3.634000    3.634000
 K    3.634000    0.000000    0.000000
 K    3.634000    0.000000    3.634000
 K    3.634000    3.634000    0.000000
 K    3.634000    3.634000    3.634000
Cl    1.817000    1.817000    1.817000
Cl   -1.817000   -1.817000   -1.817000
Cl   -1.817000   -1.817000    1.817000
Cl   -1.817000    1.817000   -1.817000
Cl   -1.817000    1.817000    1.817000
Cl    1.817000   -1.817000   -1.817000
Cl    1.817000   -1.817000    1.817000
Cl    1.817000    1.817000   -1.817000
Cl   -1.817000   -1.817000    5.451000
Cl   -1.817000    1.817000    5.451000
Cl    1.817000   -1.817000    5.451000
Cl    1.817000    1.817000    5.451000
Cl   -1.817000    5.451000   -1.817000
Cl   -1.817000    5.451000    1.817000
Cl    1.817000    5.451000   -1.817000
Cl    1.817000    5.451000    1.817000
Cl   -1.817000    5.451000    5.451000
Cl    1.817000    5.451000    5.451000
Cl    5.451000   -1.817000   -1.817000
Cl    5.451000   -1.817000    1.817000
Cl    5.451000    1.817000   -1.817000
Cl    5.451000    1.817000    1.817000
Cl    5.451000   -1.817000    5.451000
Cl    5.451000    1.817000    5.451000
Cl    5.451000    5.451000   -1.817000
Cl    5.451000    5.451000    1.817000
Cl    5.451000    5.451000    5.451000
