57
Ca O
Ca    0.000000    0.000000    0.000000
Ca    0.000000    0.000000    4.799000
Ca    0.000000    4.799000    0.000000
Ca    0.000000    4.799000    4.799000
Ca    4.799000    0.000000    0.000000
Ca    4.799000    0.000000    4.799000
Ca    4.799000    4.799000    0.000000
Ca    4.799000    4.799000    4.799000
Ca    0.000000    2.399500    2.399500
Ca    4.799000    2.399500    2.399500
Ca    2.399500    0.000000    2.399500
Ca    2.399500    4.799000    2.399500
Ca    2.399500    2.399500    0.000000
Ca    2.399500    2.399500    4.799000
 O    2.399500    2.399500    2.399500
 O    2.399500    0.000000    0.000000
 O    2.399500    0.000000    4.799000
 O    2.399500    4.799000    0.000000
 O    2.399500    4.799000    4.799000
 O    0.000000    2.399500    0.000000
 O    0.000000    2.399500    4.799000
 O    4.799000    2.399500    0.000000
 O    4.799000    2.399500    4.799000
 O    0.000000    0.000000    2.399500
 O    0.000000    4.799000    2.399500
 O    4.799000    0.000000    2.399500
 O    4.799000    4.799000    2.399500
 O   -2.399500    0.000000    0.000000
 O   -0.000000   -2.399500    0.000000
 O   -0.000000   -0.000000   -2.399500
 O   -2.399500    0.000000    4.799000
 O    0.000000   -2.399500    4.799000
 O    0.000000    0.000000    7.198500
 O   -2.399500    4.799000    0.000000
 O    0.000000    4.799000   -2.399500
 O    0.000000    7.198500    0.000000
 O   -2.399500    4.799000    4.799000
 O    0.000000    4.799000    7.198500
 O    0.000000    7.198500    4.799000
 O    4.799000   -2.399500    0.000000
 O    4.799000   -0.000000   -2.399500
 O    7.198500    0.000000    0.000000
 O    4.799000   -2.399500    4.799000
 O    4.799000    0.000000    7.198500
 O    7.198500    0.000000    4.799000
 O    4.799000    4.799000   -2.399500
 O    4.799000    7.198500    0.000000
 O    7.198500    4.799000    0.000000
 O    4.799000    4.799000    7.198500
 O    4.799000    7.198500    4.799000
 O    7.198500    4.799000    4.799000
 O   -2.399500    2.399500    2.399500
 O    7.198500    2.399500    2.399500
 O    2.399500   -2.399500    2.399500
 O    2.399500    7.198500    2.399500
 O    2.399500    2.399500   -2.399500
 O    2.399500    2.399500    7.198500
