16
B6 Ca
Ca    0.000000    0.000000    0.000000
Ca    0.000000    0.000000    4.150000
Ca    0.000000    4.150000    0.000000
Ca    0.000000    4.150000    4.150000
Ca    4.150000    0.000000    0.000000
Ca    4.150000    0.000000    4.150000
Ca    4.150000    4.150000    0.000000
Ca    4.150000    4.150000    4.150000
 B    2.075000    2.075000    0.830000
 B    2.075000    2.075000    3.320000
 B    0.830000    2.075000    2.075000
 B    3.320000    2.075000    2.075000
 B    2.075000    0.830000    2.075000
 B    2.075000    3.320000    2.075000
 B    2.075000    2.075000   -0.830000
 B    2.075000    2.075000    4.980000
