16
N3 U2
 N    0.000000    2.133887    3.825200
 N    1.848000    1.066943    2.014800
 U    0.000000    2.133887    1.489200
 U    1.848000    1.066943    4.350800
 N    0.000000    0.000000    0.000000
 N    0.000000    0.000000    5.840000
 N   -1.848000    3.200830    0.000000
 N   -1.848000    3.200830    5.840000
 N    3.696000    0.000000    0.000000
 N    3.696000    0.000000    5.840000
 N    1.848000    3.200830    0.000000
 N    1.848000    3.200830    5.840000
 N   -1.848000    1.066943    2.014800
 N    0.000000    4.267773    2.014800
 N    1.848000   -1.066943    3.825200
 N    3.696000    2.133887    3.825200
